LTspice 24.1.6 for Windows
Circuit: Z:\home\jambrosio\Desktop\Circuitos B\Bancada\Lab02\Simulação\Draft2.net
Start Time: Sun Jun 15 14:00:22 2025
solver = Normal
Maximum thread count: 4
tnom = 27
temp = 27
method = trap
Direct Newton iteration for .op point succeeded.
Total elapsed time: 0.090 seconds.

Files loaded:
Z:\home\jambrosio\Desktop\Circuitos B\Bancada\Lab02\Simulação\Draft2.net
C:\users\steamuser\AppData\Local\LTspice\lib\sub\LTC.lib

