LTspice 24.1.6 for Windows
Circuit: Z:\home\jambrosio\Desktop\Circuitos B\Bancada\Lab02\Y - Y des c neutro .net
Start Time: Tue May 20 16:46:01 2025
solver = Normal
Maximum thread count: 4
tnom = 27
temp = 27
method = trap
Direct Newton iteration for .op point succeeded.
Total elapsed time: 0.300 seconds.

Files loaded:
Z:\home\jambrosio\Desktop\Circuitos B\Bancada\Lab02\Y - Y des c neutro .net

vanrms: RMS(V(a))=130.707636852 FROM 0 TO 0.0833
vbnrms: RMS(V(b))=130.671118079 FROM 0 TO 0.0833
vcnrms: RMS(V(c))=130.660035469 FROM 0 TO 0.0833
vabrms: RMS(V(a)-V(b))=226.377583012 FROM 0 TO 0.0833
vbcrms: RMS(V(b)-V(c))=226.295129084 FROM 0 TO 0.0833
vcarms: RMS(V(c)-V(a))=226.358391413 FROM 0 TO 0.0833
irarms: RMS(I(R1))=0.309074573708 FROM 0 TO 0.0833
irbrms: RMS(I(R2))=0.315031856624 FROM 0 TO 0.0833
ircrms: RMS(I(R3))=0.313483769983 FROM 0 TO 0.0833
