LTspice 24.1.6 for Windows
Circuit: Z:\home\jambrosio\Desktop\Circuitos B\Bancada\Lab02\Simulação\Y - delta des.net
Start Time: Wed May 21 18:02:21 2025
solver = Normal
Maximum thread count: 4
tnom = 27
temp = 27
method = trap
Direct Newton iteration for .op point succeeded.
Total elapsed time: 0.070 seconds.

Files loaded:
Z:\home\jambrosio\Desktop\Circuitos B\Bancada\Lab02\Simulação\Y - delta des.net

vab: RMS(V(a)-V(b))=218.690004227 FROM 0 TO 0.0833
vbc: RMS(V(b)-V(c))=220.361900685 FROM 0 TO 0.0833
vca: RMS(V(c)-V(a))=218.194493381 FROM 0 TO 0.0833
iab: RMS(I(C1))=1.79539841104 FROM 0 TO 0.0833
ibc: RMS(I(R1))=6.34985520075 FROM 0 TO 0.0833
ica: RMS(I(Rc))=0.455293182769 FROM 0 TO 0.0833
ia: RMS(I(RtesteM))=6.60636529683 FROM 0 TO 0.0833
ib: RMS(I(RtesteN))=1.59047421459 FROM 0 TO 0.0833
ic: RMS(I(RtesteP))=6.35113653099 FROM 0 TO 0.0833
