LTspice 24.1.6 for Windows
Circuit: Z:\home\jambrosio\Desktop\Circuitos B\Bancada\Lab01\Draft2.net
Start Time: Mon May  5 10:21:50 2025
solver = Normal
Maximum thread count: 4
tnom = 27
temp = 27
method = trap
Direct Newton iteration for .op point succeeded.
Total elapsed time: 0.285 seconds.

Files loaded:
Z:\home\jambrosio\Desktop\Circuitos B\Bancada\Lab01\Draft2.net

