LTspice 24.1.6 for Windows
Circuit: Z:\home\jambrosio\Desktop\Circuitos B\Bancada\Lab01\Lab 01 Bancada a.net
Start Time: Wed Apr 23 13:53:52 2025
solver = Normal
Maximum thread count: 4
tnom = 27
temp = 27
method = trap
.OP point found by inspection.
Total elapsed time: 0.275 seconds.

Files loaded:
Z:\home\jambrosio\Desktop\Circuitos B\Bancada\Lab01\Lab 01 Bancada a.net

vr1rms: RMS(V(A))=150.014206353 FROM 0 TO 0.0833
vr2rms: RMS(V(A) - V(B))=149.889928328 FROM 0 TO 0.0833
vl1rms: RMS(V(B))=6.0607251 FROM 0 TO 0.0833
vr3rms: RMS(V(A))=150.014206353 FROM 0 TO 0.0833
vc1rms: RMS(V(A))=150.014206353 FROM 0 TO 0.0833
ir1rms: RMS(I(R1))=0.750071030926 FROM 0 TO 0.0833
ir2rms: RMS(I(R2))=0.749449644824 FROM 0 TO 0.0833
il1rms: RMS(I(L1))=0.749449644824 FROM 0 TO 0.0833
ir3rms: RMS(I(R3))=0.750071030926 FROM 0 TO 0.0833
ic1rms: RMS(I(C1))=1.58296896377 FROM 0 TO 0.0833
