LTspice 24.1.6 for Windows
Circuit: Z:\home\jambrosio\Desktop\Circuitos B\Bancada\Lab01\Lab 01 Bancada b.net
Start Time: Tue Apr 15 00:17:26 2025
solver = Normal
Maximum thread count: 4
tnom = 27
temp = 27
method = trap
.OP point found by inspection.
Total elapsed time: 0.333 seconds.

Files loaded:
Z:\home\jambrosio\Desktop\Circuitos B\Bancada\Lab01\Lab 01 Bancada b.net

vr1rms: RMS(V(A))=150.014298683 FROM 0 TO 0.0833
vr2rms: RMS(V(A) - V(B))=149.890083963 FROM 0 TO 0.0833
vl1rms: RMS(V(B))=6.06069830362 FROM 0 TO 0.0833
vr3rms: RMS(V(A))=150.014298683 FROM 0 TO 0.0833
vc1rms: RMS(V(A))=150.014298683 FROM 0 TO 0.0833
vc2rms: RMS(V(A))=150.014298683 FROM 0 TO 0.0833
ir1rms: RMS(I(R1))=0.750071494009 FROM 0 TO 0.0833
ir2rms: RMS(I(R2))=0.749450423953 FROM 0 TO 0.0833
il1rms: RMS(I(L1))=0.749450423953 FROM 0 TO 0.0833
ir3rms: RMS(I(R3))=0.750071494009 FROM 0 TO 0.0833
ic1rms: RMS(I(C1))=1.5829634426 FROM 0 TO 0.0833
ic2rms: RMS(I(C2))=1.27202420358 FROM 0 TO 0.0833
