LTspice 24.1.6 for Windows
Circuit: Z:\home\jambrosio\Desktop\Circuitos B\EaD\lab 3 .net
Start Time: Sun Jun 29 15:17:24 2025
solver = Normal
Maximum thread count: 4
tnom = 27
temp = 27
method = trap
Direct Newton iteration for .op point succeeded.
Total elapsed time: 0.262 seconds.

Files loaded:
Z:\home\jambrosio\Desktop\Circuitos B\EaD\lab 3 .net

vanrms: RMS(V(a))=110.008862744 FROM 0 TO 0.0833
vbnrms: RMS(V(b))=109.975747055 FROM 0 TO 0.0833
vcnrms: RMS(V(c))=109.974630682 FROM 0 TO 0.0833
vabrms: RMS(V(a)-V(b))=190.52246638 FROM 0 TO 0.0833
vbcrms: RMS(V(b)-V(c))=190.463169246 FROM 0 TO 0.0833
vcarms: RMS(V(c)-V(a))=190.520533312 FROM 0 TO 0.0833
irarms: RMS(I(R1))=3.69436127504 FROM 0 TO 0.0833
irbrms: RMS(I(R2))=3.85392764527 FROM 0 TO 0.0833
ircrms: RMS(I(R3))=3.70544192964 FROM 0 TO 0.0833
