LTspice 24.1.6 for Windows
Circuit: Z:\home\jambrosio\Desktop\Circuitos B\EaD\LAB 5.net
Start Time: Sun Jun 29 16:41:01 2025
Reducing mutual coupling coefficient from 3 to 1.
Reducing mutual coupling coefficient from 2 to 1.
solver = Normal
Maximum thread count: 4
tnom = 27
temp = 27
method = trap
Total elapsed time: 0.000 seconds.
Inductor L3 is in a loop involving inductor L1 and other
voltage sources and/or inductors making an over-defined circuit matrix.

You will need to correct the circuit or add some series resistance.